12
Properties=species:S:1:pos:R:3 -146528.02180000002=T pbc="F F F"
C    -81.00190   91.01220  -76.80780
C    -79.87900   90.82180  -76.04630
C    -79.99000   90.29790  -74.74070
C    -81.29550   90.05490  -74.23610
C    -82.43000   90.09750  -75.02170
C    -82.26320   90.55980  -76.35800
H    -80.84580   91.57970  -77.74910
H    -78.95480   91.19910  -76.39380
H    -79.08890   89.99860  -74.10600
H    -81.41480   89.58760  -73.22700
H    -83.50885   89.80367  -75.50271
H    -83.46659   90.44885  -76.25506
