12
Lattice="104.31332 0.0 0.0 0.0 104.98058 0.0 0.0 0.0 100.0" Properties=species:S:1:pos:R:3 pbc="F F F"
C       54.23892608      56.19640308      50.00000000
C       55.42974966      55.53303906      50.00000000
C       53.08401856      54.05270922      50.00000000
C       52.96719662      55.47490815      50.00000000
C       54.31066923      53.50991048      50.00000000
C       55.58535856      54.11465509      50.00000000
H       52.23352651      56.16473563      50.00000000
H       52.15666000      53.33545057      50.00000000
H       54.94023143      52.49029000      50.00000000
H       55.82050537      52.95301553      50.00000000
H       56.38423652      56.17752343      50.00000000
H       54.41053690      57.32121766      50.00000000
